 # Bcc Fe oriented X=[121] Y=[-101] Z=[1-11].
 CRYSTAL
 PRIMVEC
      2.44948974        0.00000000        0.00000000
      0.00000000        1.41421356        0.00000000
      0.00000000        0.00000000        0.86602540
 CONVVEC
      2.44948974        0.00000000        0.00000000
      0.00000000        1.41421356        0.00000000
      0.00000000        0.00000000        0.86602540
 PRIMCOORD
        6 1
26        0.00000000        0.00000000        0.00000000
26        0.40824829        0.70710678        0.57735027
26        1.22474487        0.70710678        0.00000000
26        1.63299316        0.00000000        0.57735027
26        0.81649658        0.00000000        0.28867513
26        2.04124145        0.70710678        0.28867513
