 # ZnO with wurtzite structure with box vectors H1=[2-1-10], H2=[-12-10], H3=[0001].
 CRYSTAL
 PRIMVEC
      3.24000000        0.00000000        0.00000000
     -1.62000000        2.80592231        0.00000000
      0.00000000        0.00000000        5.20000000
 CONVVEC
      3.24000000        0.00000000        0.00000000
     -1.62000000        2.80592231        0.00000000
      0.00000000        0.00000000        5.20000000
 PRIMCOORD
        4 1
30        0.00000000        1.87061487        0.00000000
30        1.62000000        0.93530744        2.60000000
8        0.00000000        1.87061487        1.95000000
8        1.62000000        0.93530744        4.55000000
